
  EPA STORM WATER MANAGEMENT MODEL - VERSION 5.2 (Build 5.2.4)
  PYSWMM TOOLKIT API - VERSION v1.0 (2024-10-11)
  ------------------------------------------------------------

  WARNING 04: minimum elevation drop used for Conduit G60F090_G60F070_l1
  WARNING 04: minimum elevation drop used for Conduit G61F060_G61F140_l1
  WARNING 04: minimum elevation drop used for Conduit G62F012_G62F011_l1
  WARNING 04: minimum elevation drop used for Conduit G70F301_G70F11P_l1
  WARNING 04: minimum elevation drop used for Conduit G70F301_G70F11P_l2
  WARNING 04: minimum elevation drop used for Conduit G71F290_G71F280_l1
  WARNING 04: minimum elevation drop used for Conduit G71R050_G71U10F_l1
  WARNING 04: minimum elevation drop used for Conduit G72K875_G72F874_l1
  WARNING 04: minimum elevation drop used for Conduit G73F340_G73F330_l1
  WARNING 04: minimum elevation drop used for Conduit G76R180_G76R185_l1
  WARNING 10: crest elevation raised to downstream invert for regulator Link G60F61Yo1
  WARNING 02: maximum depth increased for Node G60K200
  WARNING 02: maximum depth increased for Node G60K210
  WARNING 02: maximum depth increased for Node G60U01F
  
  ****************
  Analysis Options
  ****************
  Flow Units ............... CMS
  Process Models:
    Rainfall/Runoff ........ YES
    RDII ................... NO
    Snowmelt ............... NO
    Groundwater ............ NO
    Flow Routing ........... YES
    Ponding Allowed ........ YES
    Water Quality .......... NO
  Infiltration Method ...... HORTON
  Flow Routing Method ...... DYNWAVE
  Surcharge Method ......... EXTRAN
  Starting Date ............ 06/29/2012 00:01:00
  Ending Date .............. 06/30/2012 23:59:00
  Antecedent Dry Days ...... 0.0
  Report Time Step ......... 00:01:00
  Wet Time Step ............ 00:01:00
  Dry Time Step ............ 00:15:00
  Routing Time Step ........ 4.00 sec
  Variable Time Step ....... YES
  Maximum Trials ........... 20
  Number of Threads ........ 2
  Head Tolerance ........... 0.001500 m
  
  
  *********************
  Rainfall File Summary
  *********************
  Station    First        Last         Recording   Periods    Periods    Periods
  ID         Date         Date         Frequency  w/Precip    Missing    Malfunc.
  -------------------------------------------------------------------------------
  rg5425     06/29/2012   07/01/2012       5 min       580          0          0

  
  
  *********************
  Control Actions Taken
  *********************
   06/29/2012: 00:01:00 Link G71F68Yp1 setting changed to   0.00 by Control VACIADO_G71F68Y_OFF
   06/29/2012: 00:08:39 Link G71F05R_skylo1 setting changed to   0.00 by Control CLOSE_05GATE_EMPTYING_BASIN

  
  **************************        Volume         Depth
  Runoff Quantity Continuity     hectare-m            mm
  **************************     ---------       -------
  Total Precipitation ......      1857.313      6866.704
  Evaporation Loss .........         0.000         0.000
  Infiltration Loss ........      1278.384      4726.336
  Surface Runoff ...........       578.613      2139.202
  Final Storage ............         0.426         1.574
  Continuity Error (%) .....        -0.006
  
  
  **************************        Volume        Volume
  Flow Routing Continuity        hectare-m      10^6 ltr
  **************************     ---------     ---------
  Dry Weather Inflow .......         0.214         2.143
  Wet Weather Inflow .......       578.537      5785.428
  Groundwater Inflow .......         0.000         0.000
  RDII Inflow ..............         0.000         0.000
  External Inflow ..........         0.000         0.000
  External Outflow .........       110.032      1100.332
  Flooding Loss ............       463.810      4638.152
  Evaporation Loss .........         0.000         0.000
  Exfiltration Loss ........         0.000         0.000
  Initial Stored Volume ....         0.000         0.000
  Final Stored Volume ......         7.149        71.493
  Continuity Error (%) .....        -0.387
  
  
  *************************
  Highest Continuity Errors
  *************************
  Node G75F65X (-82.41%)
  Node G70R213 (50.01%)
  Node G70S213 (16.67%)
  Node G61F413 (13.69%)
  Node G71R133 (1.07%)
  
  
  ***************************
  Time-Step Critical Elements
  ***************************
  Link G70F62Y_G70O001_l1 (85.51%)
  Link G72F095_G72F090_l1 (9.05%)
  Link G73F050_G73K040_l1 (1.74%)
  
  
  ********************************
  Highest Flow Instability Indexes
  ********************************
  Link G60F230_G60F60Y_l1 (138)
  Link G72R520w1 (138)
  Link G72R33Bw1 (137)
  Link G60F240_G60F230_l1 (136)
  Link G60F260_G60F240_l1 (133)
  
  
  *********************************
  Most Frequent Nonconverging Nodes
  *********************************
  Node F74F360 (94.43%)
  Node G60K220 (94.43%)
  Node G60U02F (94.43%)
  Node G70U01F (94.43%)
  Node G71U02F (94.43%)
  
  
  *************************
  Routing Time Step Summary
  *************************
  Minimum Time Step           :     0.20 sec
  Average Time Step           :     0.49 sec
  Maximum Time Step           :     4.00 sec
  % of Time in Steady State   :     0.00
  Average Iterations per Step :    19.62
  % of Steps Not Converging   :    94.43
  Time Step Frequencies       :
      4.000 -  2.197 sec      :     0.00 %
      2.197 -  1.207 sec      :     0.00 %
      1.207 -  0.663 sec      :     0.04 %
      0.663 -  0.364 sec      :    94.21 %
      0.364 -  0.200 sec      :     5.75 %
  
  
  ***************************
  Subcatchment Runoff Summary
  ***************************
  
  ------------------------------------------------------------------------------------------------------------------------------
                            Total      Total      Total      Total     Imperv       Perv      Total       Total     Peak  Runoff
                           Precip      Runon       Evap      Infil     Runoff     Runoff     Runoff      Runoff   Runoff   Coeff
  Subcatchment                 mm         mm         mm         mm         mm         mm         mm    10^6 ltr      CMS
  ------------------------------------------------------------------------------------------------------------------------------
  BellAa_1358_17896_6     6866.70       0.00       0.00    6734.86     131.84       0.00     131.84        1.66     0.02   0.019
  G72R272_8122            6866.70       0.00       0.00    3148.38    3717.83       0.00    3717.83        3.98     0.05   0.541
  G72R280_8123            6866.70       0.00       0.00    5247.54    1618.98       0.00    1618.98        3.68     0.04   0.236
  G72R290_8124            6866.70       0.00       0.00    6866.70       0.00       0.00       0.00        0.00     0.00   0.000
  G72R291_8125            6866.70       0.00       0.00    4958.45    1907.95       0.00    1907.95        4.52     0.05   0.278
  G72R292_8126            6866.70       0.00       0.00    4265.60    2600.96       0.00    2600.96        2.71     0.03   0.379
  G72R293_8127            6866.70       0.00       0.00    5183.67    1682.97       0.00    1682.97        2.29     0.03   0.245
  G72R294_8128            6866.70       0.00       0.00    5472.76    1393.79       0.00    1393.79        3.54     0.04   0.203
  G72R295_8129            6866.70       0.00       0.00    4587.64    2278.46       0.00    2278.46        6.56     0.08   0.332
  G72R310_8130            6866.70       0.00       0.00    4077.45    2788.56       0.00    2788.56        6.30     0.07   0.406
  G72R330_8131            6866.70       0.00       0.00    3846.73    3018.56       0.00    3018.56       11.59     0.14   0.440
  G72R332_8132            6866.70       0.00       0.00    3937.37    2928.80       0.00    2928.80        4.95     0.06   0.427
  G72R333_8133            6866.70       0.00       0.00    4586.96    2279.51       0.00    2279.51        3.49     0.04   0.332
  G72R335_8134            6866.70       0.00       0.00    4691.33    2175.11       0.00    2175.11        3.78     0.05   0.317
  G72R33B_8135            6866.70       0.00       0.00    6765.76     100.94       0.00     100.94        0.92     0.01   0.015
  G72R340_8136            6866.70       0.00       0.00    4955.70    1910.43       0.00    1910.43        7.36     0.09   0.278
  G72R360_8137            6866.70       0.00       0.00    4806.69    2059.16       0.00    2059.16       10.13     0.12   0.300
  G72R370_8138            6866.70       0.00       0.00    3898.91    2965.55       0.00    2965.55       20.61     0.25   0.432
  G72R380_8139            6866.70       0.00       0.00    3844.67    3020.37       0.00    3020.37       13.95     0.17   0.440
  G72R390_8140            6866.70       0.00       0.00    3990.93    2873.93       0.00    2873.93       16.76     0.20   0.419
  G72R641_8141            6866.70       0.00       0.00    2856.55    4010.09       0.00    4010.09        1.96     0.02   0.584
  G72R642_8142            6866.70       0.00       0.00    6866.70       0.00       0.00       0.00        0.00     0.00   0.000
  G72R645_8143            6866.70       0.00       0.00    5570.96    1295.74       0.00    1295.74        1.74     0.02   0.189
  G72R646_8144            6866.70       0.00       0.00    4450.31    2416.17       0.00    2416.17        3.31     0.04   0.352
  G72R647_8145            6866.70       0.00       0.00    2306.53    4560.22       0.00    4560.22        1.14     0.01   0.664
  G72R648_8146            6866.70       0.00       0.00    4746.27    2120.36       0.00    2120.36        2.37     0.03   0.309
  G72R649_8147            6866.70       0.00       0.00    3797.97    3068.21       0.00    3068.21        4.73     0.06   0.447
  G72R650_8148            6866.70       0.00       0.00    3715.57    3149.70       0.00    3149.70       11.15     0.13   0.459
  G72R651_8149            6866.70       0.00       0.00    4337.01    2529.45       0.00    2529.45        3.34     0.04   0.368
  G72R653_8150            6866.70       0.00       0.00    3896.17    2969.32       0.00    2969.32        9.98     0.12   0.432
  G72F316_7958            6866.70       0.00       0.00    1824.48    5041.91       0.00    5041.91        2.77     0.03   0.734
  G72F317_7959            6866.70       0.00       0.00    6052.31     814.39       0.00     814.39        1.61     0.02   0.119
  G72F317_7960            6866.70       0.00       0.00    3818.57    3047.56       0.00    3047.56        5.03     0.06   0.444
  G72F317_7961            6866.70       0.00       0.00    1720.80    5144.98       0.00    5144.98        4.89     0.06   0.749
  G72F317_7962            6866.70       0.00       0.00    4540.95    2325.66       0.00    2325.66        2.40     0.03   0.339
  G72F320_7963            6866.70       0.00       0.00    4247.06    2619.60       0.00    2619.60        2.02     0.02   0.381
  G72F320_7964            6866.70       0.00       0.00    1203.73    5662.58       0.00    5662.58        2.89     0.03   0.825
  G72F330_7965            6866.70       0.00       0.00    4524.47    2341.93       0.00    2341.93        3.93     0.05   0.341
  G72F331_7966            6866.70       0.00       0.00    5266.08    1600.65       0.00    1600.65        1.25     0.01   0.233
  G72F332_7967            6866.70       0.00       0.00    4591.76    2274.55       0.00    2274.55        4.75     0.06   0.331
  G72F333_7968            6866.70       0.00       0.00    5016.81    1849.75       0.00    1849.75        3.00     0.04   0.269
  G72F334_7969            6866.70       0.00       0.00    4079.51    2786.94       0.00    2786.94        3.29     0.04   0.406
  G72F335_7970            6866.70       0.00       0.00    4733.22    2133.29       0.00    2133.29        3.29     0.04   0.311
  G72F336_7971            6866.70       0.00       0.00    4573.22    2292.80       0.00    2292.80        7.29     0.09   0.334
  G72F337_7972            6866.70       0.00       0.00    5378.69    1488.02       0.00    1488.02        1.53     0.02   0.217
  G72F337_7972_1          6866.70       0.00       0.00    5079.30    1787.34       0.00    1787.34        2.27     0.03   0.260
  G60O280_7268            6866.70       0.00       0.00    4036.25    2828.46       0.00    2828.46       18.87     0.22   0.412
  G60O320_7269            6866.70       0.00       0.00    4319.16    2546.76       0.00    2546.76        7.56     0.09   0.371
  G60O340_7270            6866.70       0.00       0.00    5236.55    1629.23       0.00    1629.23       14.53     0.17   0.237
  G60R011_7271            6866.70       0.00       0.00    5844.25    1021.74       0.00    1021.74       18.59     0.22   0.149
  G60R281_7272            6866.70       0.00       0.00    4054.79    2811.05       0.00    2811.05        7.53     0.09   0.409
  G60R282_7273            6866.70       0.00       0.00    4153.67    2711.66       0.00    2711.66       12.64     0.15   0.395
  G60R290_7274            6866.70       0.00       0.00    3893.42    2972.04       0.00    2972.04       10.28     0.12   0.433
  G60R291_7275            6866.70       0.00       0.00    4003.98    2861.47       0.00    2861.47       10.85     0.13   0.417
  G60R293_7277            6866.70       0.00       0.00    4089.81    2775.68       0.00    2775.68       10.71     0.13   0.404
  G60R295_7278            6866.70       0.00       0.00    6866.70       0.00       0.00       0.00        0.00     0.00   0.000
  G60R296_7279            6866.70       0.00       0.00    4133.76    2732.03       0.00    2732.03        8.22     0.10   0.398
  G60R305_7280            6866.70       0.00       0.00    4168.78    2696.08       0.00    2696.08       18.23     0.22   0.393
  G60R307_7281            6866.70       0.00       0.00    4399.50    2465.59       0.00    2465.59       17.26     0.21   0.359
  G60R308_7282            6866.70       0.00       0.00    3628.37    3237.00       0.00    3237.00       10.10     0.12   0.471
  G60R321_7283            6866.70       0.00       0.00    4151.61    2714.10       0.00    2714.10        8.98     0.11   0.395
  G60R322_7284            6866.70       0.00       0.00    4245.68    2619.54       0.00    2619.54       14.41     0.17   0.381
  G60R323_7285            6866.70       0.00       0.00    4245.68    2619.99       0.00    2619.99        9.56     0.11   0.382
  G60R342_7286            6866.70       0.00       0.00    4675.54    2190.80       0.00    2190.80        4.62     0.06   0.319
  G60R343_7287            6866.70       0.00       0.00    4710.56    2155.26       0.00    2155.26       10.02     0.12   0.314
  G60R380_7288            6866.70       0.00       0.00    4488.76    2376.51       0.00    2376.51       15.52     0.18   0.346
  G60R381_7289            6866.70       0.00       0.00    5133.55    1732.59       0.00    1732.59        8.00     0.10   0.252
  G60R382_7290            6866.70       0.00       0.00    4344.56    2521.64       0.00    2521.64        5.25     0.06   0.367
  G60R383_7291            6866.70       0.00       0.00    4669.36    2196.62       0.00    2196.62        8.06     0.10   0.320
  G61F011_7292            6866.70       0.00       0.00    4285.51    2579.98       0.00    2579.98       11.61     0.14   0.376
  G61F013_7293            6866.70       0.00       0.00    4615.80    2250.45       0.00    2250.45        5.36     0.06   0.328
  G61F030_7294            6866.70       0.00       0.00    4007.41    2857.81       0.00    2857.81       13.06     0.16   0.416
  G61F031_7295            6866.70       0.00       0.00    4209.29    2656.33       0.00    2656.33        9.99     0.12   0.387
  G61F032_7296            6866.70       0.00       0.00    4501.12    2364.32       0.00    2364.32       13.33     0.16   0.344
  G61F033_7297            6866.70       0.00       0.00    4522.41    2343.07       0.00    2343.07       13.10     0.16   0.341
  G61F034_7298            6866.70       0.00       0.00    4260.10    2605.10       0.00    2605.10       14.67     0.17   0.379
  G61F035_7299            6866.70       0.00       0.00    4466.10    2399.68       0.00    2399.68        9.33     0.11   0.349
  G61F041_7300            6866.70       0.00       0.00    4405.68    2459.67       0.00    2459.67       13.92     0.17   0.358
  G61F042_7301            6866.70       0.00       0.00    4547.82    2317.67       0.00    2317.67       13.21     0.16   0.338
  G61F043_7302            6866.70       0.00       0.00    4137.19    2727.90       0.00    2727.90       15.14     0.18   0.397
  G61F044_7303            6866.70       0.00       0.00    4054.10    2811.39       0.00    2811.39       10.57     0.13   0.409
  G61F045_7304            6866.70       0.00       0.00    4071.27    2794.21       0.00    2794.21       10.79     0.13   0.407
  G61F060_7305            6866.70       0.00       0.00    3957.97    2907.16       0.00    2907.16       13.69     0.16   0.423
  G61F061_7306            6866.70       0.00       0.00    4434.52    2430.89       0.00    2430.89       13.44     0.16   0.354
  G61F062_7307            6866.70       0.00       0.00    4329.46    2535.84       0.00    2535.84       14.00     0.17   0.369
  G61F063_7308            6866.70       0.00       0.00    4474.34    2391.08       0.00    2391.08       13.49     0.16   0.348
  G61F064_7309            6866.70       0.00       0.00    4308.17    2557.49       0.00    2557.49        9.95     0.12   0.372
  G61F065_7310            6866.70       0.00       0.00    4307.48    2558.19       0.00    2558.19        9.85     0.12   0.373
  G61F080_7311            6866.70       0.00       0.00    6074.97     791.50       0.00     791.50        7.08     0.08   0.115
  G61F120_7312            6866.70       0.00       0.00    3861.15    3003.85       0.00    3003.85       14.48     0.17   0.437
  G61F130_7313            6866.70       0.00       0.00    4836.91    2028.84       0.00    2028.84       11.69     0.14   0.295
  G61F140_7314            6866.70       0.00       0.00    3931.19    2935.21       0.00    2935.21        3.49     0.04   0.427
  G61F160_7315            6866.70       0.00       0.00    3063.92    3800.37       0.00    3800.37       16.49     0.20   0.553
  G61F161_7316            6866.70       0.00       0.00    4581.46    2283.81       0.00    2283.81       16.19     0.19   0.333
  G61F162_7317            6866.70       0.00       0.00    5136.98    1728.97       0.00    1728.97       10.70     0.13   0.252
  G61F163_7318            6866.70       0.00       0.00    5152.77    1712.94       0.00    1712.94       14.78     0.18   0.249
  G61F164_7319            6866.70       0.00       0.00    5171.31    1694.77       0.00    1694.77        8.86     0.11   0.247
  G61F170_7320            6866.70       0.00       0.00    4343.88    2521.20       0.00    2521.20       16.82     0.20   0.367
  G61F180_7321            6866.70       0.00       0.00    3631.80    3233.45       0.00    3233.45       11.09     0.13   0.471
  G61F210_7322            6866.70       0.00       0.00    4657.00    2208.82       0.00    2208.82        9.85     0.12   0.322
  G61F221_7323            6866.70       0.00       0.00    3946.98    2917.93       0.00    2917.93       15.82     0.19   0.425
  G61F222_7324            6866.70       0.00       0.00    3642.10    3223.50       0.00    3223.50        8.35     0.10   0.469
  G61F223_7325            6866.70       0.00       0.00    4086.38    2779.91       0.00    2779.91        4.36     0.05   0.405
  G61F224_7326            6866.70       0.00       0.00    3910.59    2955.59       0.00    2955.59        4.85     0.06   0.430
  G61F230_7327            6866.70       0.00       0.00    4749.70    2116.28       0.00    2116.28        8.40     0.10   0.308
  G61F231_7328            6866.70       0.00       0.00    4442.76    2422.60       0.00    2422.60       14.12     0.17   0.353
  G61F232_7329            6866.70       0.00       0.00    4330.14    2536.13       0.00    2536.13        4.69     0.06   0.369
  G61F233_7330            6866.70       0.00       0.00    3936.68    2929.47       0.00    2929.47        5.04     0.06   0.427
  G61F240_7331            6866.70       0.00       0.00    4640.52    2224.97       0.00    2224.97       13.73     0.16   0.324
  G61F241_7332            6866.70       0.00       0.00    4119.34    2746.04       0.00    2746.04       12.03     0.14   0.400
  G61F242_7333            6866.70       0.00       0.00    3875.57    2990.24       0.00    2990.24        7.39     0.09   0.435
  G61F243_7334            6866.70       0.00       0.00    4216.16    2650.46       0.00    2650.46        2.31     0.03   0.386
  G61F260_7335            6866.70       0.00       0.00    4500.44    2365.08       0.00    2365.08       12.51     0.15   0.344
  G61F261_7336            6866.70       0.00       0.00    4247.06    2619.19       0.00    2619.19        4.77     0.06   0.381
  G61F270_7337            6866.70       0.00       0.00    3995.05    2870.11       0.00    2870.11       13.55     0.16   0.418
  G61F280_7338            6866.70       0.00       0.00    3977.19    2888.98       0.00    2888.98        4.94     0.06   0.421
  G61F290_7339            6866.70       0.00       0.00    3147.01    3718.96       0.00    3718.96        5.24     0.06   0.542
  G61F320_7340            6866.70       0.00       0.00    4319.16    2546.41       0.00    2546.41       11.03     0.13   0.371
  G61F330_7341            6866.70       0.00       0.00    4014.28    2851.22       0.00    2851.22       10.38     0.12   0.415
  G61F331_7342            6866.70       0.00       0.00    5504.35    1362.06       0.00    1362.06        5.57     0.07   0.198
  G61F340_7343            6866.70       0.00       0.00    3918.83    2946.27       0.00    2946.27       13.73     0.16   0.429
  G61F350_7344            6866.70       0.00       0.00    3635.23    3228.89       0.00    3228.89       22.18     0.26   0.470
  G61F351_7345            6866.70       0.00       0.00    3278.16    3587.57       0.00    3587.57        6.71     0.08   0.522
  G61F352_7346            6866.70       0.00       0.00    4998.96    1867.59       0.00    1867.59        3.14     0.04   0.272
  G61F353_7347            6866.70       0.00       0.00    4952.27    1913.47       0.00    1913.47       12.59     0.15   0.279
  G61F354_7348            6866.70       0.00       0.00    4811.50    2054.86       0.00    2054.86        4.64     0.06   0.299
  G61F360_7349            6866.70       0.00       0.00    4274.52    2591.56       0.00    2591.56        6.12     0.07   0.377
  G61F362_7350            6866.70       0.00       0.00    3609.83    3256.55       0.00    3256.55        3.45     0.04   0.474
  G61F370_7351            6866.70       0.00       0.00    5106.08    1759.77       0.00    1759.77       11.98     0.14   0.256
  G61F373_7352            6866.70       0.00       0.00    5042.22    1823.94       0.00    1823.94        7.30     0.09   0.266
  G61F375_7353            6866.70       0.00       0.00    5678.76    1187.94       0.00    1187.94        1.68     0.02   0.173
  G61F376_7354            6866.70       0.00       0.00    5574.39    1292.31       0.00    1292.31        1.63     0.02   0.188
  G61F380_7355            6866.70       0.00       0.00    5420.58    1445.61       0.00    1445.61        8.70     0.10   0.211
  G61F390_7356            6866.70       0.00       0.00    5341.61    1524.89       0.00    1524.89        4.04     0.05   0.222
  G61F400_7357            6866.70       0.00       0.00    4942.65    1923.77       0.00    1923.77        4.23     0.05   0.280
  G61F410_7358            6866.70       0.00       0.00    5060.76    1804.92       0.00    1804.92       14.39     0.17   0.263
  G61F411_7359            6866.70       0.00       0.00    5585.38    1281.20       0.00    1281.20        3.37     0.04   0.187
  G61F412_7360            6866.70       0.00       0.00    4676.91    2188.87       0.00    2188.87       10.35     0.12   0.319
  G61F420_7361            6866.70       0.00       0.00    4302.68    2562.54       0.00    2562.54       14.86     0.18   0.373
  G61F430_7362            6866.70       0.00       0.00    4329.46    2535.34       0.00    2535.34       20.49     0.24   0.369
  G61F440_7363            6866.70       0.00       0.00    4245.00    2620.16       0.00    2620.16       15.12     0.18   0.382
  G61F460_7364            6866.70       0.00       0.00    4371.34    2493.98       0.00    2493.98       13.99     0.17   0.363
  G62F010_7416            6866.70       0.00       0.00    4497.69    2367.74       0.00    2367.74       13.54     0.16   0.345
  G62F011_7417            6866.70       0.00       0.00    5344.36    1522.24       0.00    1522.24        2.89     0.03   0.222
  G62F012_7418            6866.70       0.00       0.00    4792.96    2073.09       0.00    2073.09        7.73     0.09   0.302
  G62F014_7419            6866.70       0.00       0.00    4352.80    2513.03       0.00    2513.03        8.44     0.10   0.366
  G62F015_7420            6866.70       0.00       0.00    4708.50    2157.63       0.00    2157.63        6.67     0.08   0.314
  G62F020_7421            6866.70       0.00       0.00    4399.50    2465.78       0.00    2465.78       14.79     0.18   0.359
  G62F022_7422            6866.70       0.00       0.00    4201.05    2664.27       0.00    2664.27       13.03     0.16   0.388
  G62F023_7423            6866.70       0.00       0.00    4753.13    2113.35       0.00    2113.35        3.51     0.04   0.308
  G62F060_7424            6866.70       0.00       0.00    4308.86    2556.48       0.00    2556.48       13.42     0.16   0.372
  G62F070_7425            6866.70       0.00       0.00    3480.05    3385.05       0.00    3385.05       11.78     0.14   0.493
  G62F071_7426            6866.70       0.00       0.00    3964.83    2899.54       0.00    2899.54       22.27     0.27   0.422
  G62F072_7427            6866.70       0.00       0.00    4093.93    2770.98       0.00    2770.98       16.93     0.20   0.404
  G62F073_7428            6866.70       0.00       0.00    4546.44    2319.54       0.00    2319.54        7.63     0.09   0.338
  G62F090_7429            6866.70       0.00       0.00    3797.29    3066.40       0.00    3066.40       29.25     0.35   0.447
  G62F091_7430            6866.70       0.00       0.00    4461.30    2403.95       0.00    2403.95       15.58     0.19   0.350
  G62F092_7431            6866.70       0.00       0.00    4419.41    2446.12       0.00    2446.12       11.94     0.14   0.356
  G62F093_7432            6866.70       0.00       0.00    4536.14    2329.45       0.00    2329.45       11.81     0.14   0.339
  G62F094_7433            6866.70       0.00       0.00    4408.42    2457.04       0.00    2457.04       12.58     0.15   0.358
  G62F095_7434            6866.70       0.00       0.00    4236.07    2629.25       0.00    2629.25       13.23     0.16   0.383
  G62F110_7435            6866.70       0.00       0.00    4130.32    2734.57       0.00    2734.57       17.47     0.21   0.398
  G62F112_7436            6866.70       0.00       0.00    4432.46    2432.50       0.00    2432.50       19.29     0.23   0.354
  G62F113_7437            6866.70       0.00       0.00    4382.33    2483.24       0.00    2483.24       11.25     0.13   0.362
  G62F114_7438            6866.70       0.00       0.00    4074.70    2790.89       0.00    2790.89        9.71     0.12   0.406
  G62F115_7439            6866.70       0.00       0.00    3502.71    3363.12       0.00    3363.12        6.56     0.08   0.490
  G62F116_7440            6866.70       0.00       0.00    3600.90    3264.18       0.00    3264.18       12.40     0.15   0.475
  G62F117_7441            6866.70       0.00       0.00    4207.23    2659.03       0.00    2659.03        4.65     0.06   0.387
  G62F121_7442            6866.70       0.00       0.00    4620.61    2244.74       0.00    2244.74       15.58     0.19   0.327
  G62F122_7443            6866.70       0.00       0.00    4148.86    2716.45       0.00    2716.45       12.79     0.15   0.396
  G62F130_7444            6866.70       0.00       0.00    4120.71    2744.90       0.00    2744.90        9.72     0.12   0.400
  G62F140_7445            6866.70       0.00       0.00    4395.38    2469.89       0.00    2469.89       14.87     0.18   0.360
  G62F160_7446            6866.70       0.00       0.00    4408.42    2456.85       0.00    2456.85       14.89     0.18   0.358
  G62F170_7447            6866.70       0.00       0.00    4375.46    2489.92       0.00    2489.92       13.30     0.16   0.363
  G62F180_7448            6866.70       0.00       0.00    4453.74    2411.23       0.00    2411.23       19.19     0.23   0.351
  G62F191_7449            6866.70       0.00       0.00    3977.19    2887.97       0.00    2887.97       13.37     0.16   0.421
  G62F195_7450            6866.70       0.00       0.00    3129.16    3735.70       0.00    3735.70       12.29     0.15   0.544
  G62F197_7451            6866.70       0.00       0.00    3657.21    3207.75       0.00    3207.75       13.73     0.16   0.467
  G62F199_7452            6866.70       0.00       0.00    3916.08    2949.49       0.00    2949.49        9.41     0.11   0.430
  G62F402_7453            6866.70       0.00       0.00    3517.13    3348.95       0.00    3348.95        5.02     0.06   0.488
  G62F403_7454            6866.70       0.00       0.00    2705.48    4159.75       0.00    4159.75        8.61     0.10   0.606
  G70F105_76812           6866.70       0.00       0.00    6577.62     289.03       0.00     289.03        5.62     0.07   0.042
  G70F123_7682            6866.70       0.00       0.00    5040.16    1825.78       0.00    1825.78       10.22     0.12   0.266
  G70F125_7683            6866.70       0.00       0.00    5388.30    1478.18       0.00    1478.18        4.29     0.05   0.215
  G70F130_7684            6866.70       0.00       0.00    4041.06    2825.50       0.00    2825.50        2.63     0.03   0.411
  G70F143_7685            6866.70       0.00       0.00    4142.68    2722.12       0.00    2722.12       18.65     0.22   0.396
  G70F160_7686            6866.70       0.00       0.00    5033.98    1832.67       0.00    1832.67        2.16     0.03   0.267
  G70F161_7687            6866.70       0.00       0.00    4523.78    2341.75       0.00    2341.75       12.46     0.15   0.341
  G70F162_7688            6866.70       0.00       0.00    4032.13    2833.69       0.00    2833.69        7.68     0.09   0.413
  G70F163_7689            6866.70       0.00       0.00    4170.15    2695.68       0.00    2695.68        7.93     0.09   0.393
  G70F164_7690            6866.70       0.00       0.00    4411.17    2454.76       0.00    2454.76        7.68     0.09   0.357
  G70F165_7691            6866.70       0.00       0.00    4735.97    2130.06       0.00    2130.06        7.80     0.09   0.310
  G70F166_7692            6866.70       0.00       0.00    4413.23    2453.45       0.00    2453.45        1.84     0.02   0.357
  G70F210_7693            6866.70       0.00       0.00    4188.69    2676.70       0.00    2676.70       12.23     0.15   0.390
  G70F211_7694            6866.70       0.00       0.00    4455.80    2409.72       0.00    2409.72       12.12     0.14   0.351
  G70F220_7695            6866.70       0.00       0.00    4500.44    2365.36       0.00    2365.36        9.39     0.11   0.344
  G70F230_7696            6866.70       0.00       0.00    4841.71    2024.62       0.00    2024.62        4.94     0.06   0.295
  G70F232_7697            6866.70       0.00       0.00    4358.30    2506.20       0.00    2506.20       25.26     0.30   0.365
  G70F234_7698            6866.70       0.00       0.00    4327.40    2537.87       0.00    2537.87       14.42     0.17   0.370
  G70F235_7699            6866.70       0.00       0.00    4665.93    2200.29       0.00    2200.29        5.74     0.07   0.320
  G70F236_7700            6866.70       0.00       0.00    4302.68    2563.70       0.00    2563.70        3.95     0.05   0.373
  G70F330_7701            6866.70       0.00       0.00    4413.92    2451.89       0.00    2451.89        8.95     0.11   0.357
  G70F331_7702            6866.70       0.00       0.00    4804.63    2061.46       0.00    2061.46        7.26     0.09   0.300
  G70F332_7703            6866.70       0.00       0.00    4509.36    2356.41       0.00    2356.41        9.64     0.11   0.343
  G70F333_7704            6866.70       0.00       0.00    3737.55    3128.51       0.00    3128.51        5.44     0.06   0.456
  G70F334_7705            6866.70       0.00       0.00    4199.68    2666.29       0.00    2666.29        6.91     0.08   0.388
  G70F335_7706            6866.70       0.00       0.00    1106.23    5759.82       0.00    5759.82        3.69     0.04   0.839
  G70F340_7707            6866.70       0.00       0.00    4718.80    2146.42       0.00    2146.42       18.46     0.22   0.313
  G70F341_7708            6866.70       0.00       0.00    6536.42     330.29       0.00     330.29        1.84     0.02   0.048
  G70F370_7709            6866.70       0.00       0.00    4789.53    2076.17       0.00    2076.17       12.02     0.14   0.302
  G70F371_7710            6866.70       0.00       0.00    4634.34    2231.18       0.00    2231.18       13.32     0.16   0.325
  G70F373_7711            6866.70       0.00       0.00    3980.63    2884.80       0.00    2884.80       10.85     0.13   0.420
  G70F374_7712            6866.70       0.00       0.00    4183.88    2682.72       0.00    2682.72        2.33     0.03   0.391
  G70F375_7713            6866.70       0.00       0.00    4446.19    2420.19       0.00    2420.19        4.07     0.05   0.352
  G70F377_7714            6866.70       0.00       0.00    4681.72    2184.18       0.00    2184.18        9.00     0.11   0.318
  G70R193_7763            6866.70       0.00       0.00    4415.29    2450.87       0.00    2450.87        5.74     0.07   0.357
  G70R261_7775            6866.70       0.00       0.00    4727.04    2139.52       0.00    2139.52        2.91     0.03   0.312
  G70R262_7776            6866.70       0.00       0.00    5277.06    1589.49       0.00    1589.49        3.39     0.04   0.231
  G71F041_7827            6866.70       0.00       0.00    5025.74    1840.71       0.00    1840.71        4.14     0.05   0.268
  G71F041_7828            6866.70       0.00       0.00    2111.51    4753.87       0.00    4753.87        6.89     0.08   0.692
  G71F046_7829            6866.70       0.00       0.00    2818.78    4047.40       0.00    4047.40        3.97     0.05   0.589
  G71F047_7830            6866.70       0.00       0.00    5597.74    1268.60       0.00    1268.60        7.19     0.09   0.185
  G71F057_7831            6866.70       0.00       0.00    6848.16      18.54       0.00      18.54        0.01     0.00   0.003
  G71F057_7832            6866.70       0.00       0.00    1607.50    5258.11       0.00    5258.11        5.47     0.07   0.766
  G71F057_7833            6866.70       0.00       0.00    6256.94     609.76       0.00     609.76        0.11     0.00   0.089
  G71F058_7834            6866.70       0.00       0.00    5025.74    1840.92       0.00    1840.92        2.10     0.02   0.268
  G71F058_7835            6866.70       0.00       0.00    4946.77    1919.93       0.00    1919.93        0.52     0.01   0.280
  G71F090_7836            6866.70       0.00       0.00    6563.20     303.51       0.00     303.51        0.70     0.01   0.044
  G71F090_7836_1          6866.70       0.00       0.00    5906.05     960.59       0.00     960.59        2.78     0.03   0.140
  G71F090_7837            6866.70       0.00       0.00    2767.97    4098.13       0.00    4098.13        4.30     0.05   0.597
  G71F100_7838            6866.70       0.00       0.00    6864.64       2.06       0.00       2.06        0.00     0.00   0.000
  G71F100_7838_1          6866.70       0.00       0.00    6000.81     865.88       0.00     865.88        1.93     0.02   0.126
  G71F100_7839            6866.70       0.00       0.00    2837.32    4029.13       0.00    4029.13        2.78     0.03   0.587
  G71F110_7840            6866.70       0.00       0.00    5667.09    1199.62       0.00    1199.62        1.55     0.02   0.175
  G71F110_7840_1          6866.70       0.00       0.00    5355.34    1511.19       0.00    1511.19        3.70     0.04   0.220
  G71F110_7841            6866.70       0.00       0.00    2411.59    4454.55       0.00    4454.55        3.92     0.05   0.649
  G71F110_7842            6866.70       0.00       0.00    2421.20    4445.50       0.00    4445.50        0.58     0.01   0.647
  G71F120_7843            6866.70       0.00       0.00    5636.19    1230.50       0.00    1230.50        0.25     0.00   0.179
  G71F120_7843_1          6866.70       0.00       0.00    4663.87    2201.99       0.00    2201.99        9.40     0.11   0.321
  G71F120_7844            6866.70       0.00       0.00    1880.79    4984.65       0.00    4984.65        6.38     0.08   0.726
  G71F121_7845            6866.70       0.00       0.00    4065.78    2799.02       0.00    2799.02       18.00     0.21   0.408
  G71F122_7846            6866.70       0.00       0.00    5218.70    1647.79       0.00    1647.79        3.97     0.05   0.240
  G71F123_7847            6866.70       0.00       0.00    5223.50    1642.80       0.00    1642.80        6.18     0.07   0.239
  G71F125_7848            6866.70       0.00       0.00    5407.53    1458.50       0.00    1458.50       11.46     0.14   0.212
  G71F126_7849            6866.70       0.00       0.00    4972.18    1894.14       0.00    1894.14        5.34     0.06   0.276
  G71F127_7850            6866.70       0.00       0.00    5251.66    1614.81       0.00    1614.81        4.28     0.05   0.235
  G71F128_7851            6866.70       0.00       0.00    5371.82    1494.72       0.00    1494.72        3.54     0.04   0.218
  G71F12P_7852            6866.70       0.00       0.00    3545.28    3318.61       0.00    3318.61       23.93     0.28   0.483
  G71F140_7853            6866.70       0.00       0.00    4357.61    2508.07       0.00    2508.07        9.96     0.12   0.365
  G71F141_7854            6866.70       0.00       0.00    4722.92    2143.27       0.00    2143.27        6.13     0.07   0.312
  G71F142_7855            6866.70       0.00       0.00    4073.33    2792.12       0.00    2792.12       11.03     0.13   0.407
  G71F143_7856            6866.70       0.00       0.00    4867.12    1999.23       0.00    1999.23        4.86     0.06   0.291
  G71F144_7857            6866.70       0.00       0.00    5111.57    1754.18       0.00    1754.18       13.68     0.16   0.255
  G71F145_7858            6866.70       0.00       0.00    5156.89    1709.28       0.00    1709.28        7.61     0.09   0.249
  G71F146_7859            6866.70       0.00       0.00    5531.13    1335.45       0.00    1335.45        3.37     0.04   0.194
  G71F147_7860            6866.70       0.00       0.00    5040.16    1826.40       0.00    1826.40        3.07     0.04   0.266
  G71F148_7861            6866.70       0.00       0.00    4713.31    2152.80       0.00    2152.80        6.87     0.08   0.314
  G71F160_7862            6866.70       0.00       0.00    4341.13    2524.04       0.00    2524.04       15.65     0.19   0.368
  G71F170_7863            6866.70       0.00       0.00    3905.78    2959.75       0.00    2959.75        9.65     0.11   0.431
  G71F171_7864            6866.70       0.00       0.00    4996.90    1868.95       0.00    1868.95       11.25     0.13   0.272
  G71F172_7865            6866.70       0.00       0.00    5274.32    1591.69       0.00    1591.69       10.71     0.13   0.232
  G71F174_7866            6866.70       0.00       0.00    4665.93    2200.05       0.00    2200.05        8.05     0.10   0.320
  G71F175_7867            6866.70       0.00       0.00    4917.25    1948.66       0.00    1948.66       10.04     0.12   0.284
  G71F176_7868            6866.70       0.00       0.00    5573.02    1293.53       0.00    1293.53        3.79     0.05   0.188
  G71F177_7869            6866.70       0.00       0.00    4400.87    2464.80       0.00    2464.80       10.30     0.12   0.359
  G71F180_7870            6866.70       0.00       0.00    4760.00    2105.94       0.00    2105.94        8.80     0.10   0.307
  G71F190_7871            6866.70       0.00       0.00    4400.87    2464.67       0.00    2464.67       11.66     0.14   0.359
  G71F200_7872            6866.70       0.00       0.00    4431.77    2433.61       0.00    2433.61       13.68     0.16   0.354
  G71F300_7873            6866.70       0.00       0.00    4397.44    2468.05       0.00    2468.05       12.27     0.15   0.359
  G71F301_7874            6866.70       0.00       0.00    4280.70    2585.20       0.00    2585.20        7.57     0.09   0.376
  G71F302_7875            6866.70       0.00       0.00    4523.78    2342.07       0.00    2342.07        8.88     0.11   0.341
  G71F303_7876            6866.70       0.00       0.00    4489.45    2377.16       0.00    2377.16        2.35     0.03   0.346
  G71F304_7877            6866.70       0.00       0.00    5952.75     913.94       0.00     913.94        2.09     0.02   0.133
  G71F305_7878            6866.70       0.00       0.00    4518.29    2346.92       0.00    2346.92       16.59     0.20   0.342
  G71F306_7879            6866.70       0.00       0.00    4084.32    2782.11       0.00    2782.11        3.42     0.04   0.405
  G71F306_78792           6866.70       0.00       0.00    5211.14    1655.57       0.00    1655.57        1.57     0.02   0.241
  G71F310_7880            6866.70       0.00       0.00    4790.90    2074.92       0.00    2074.92       10.46     0.12   0.302
  G71F311_7881            6866.70       0.00       0.00    5051.15    1814.80       0.00    1814.80       10.27     0.12   0.264
  G71F312_7882            6866.70       0.00       0.00    5039.47    1825.93       0.00    1825.93       19.03     0.23   0.266
  G71F313_7883            6866.70       0.00       0.00    4523.78    2342.41       0.00    2342.41        5.67     0.07   0.341
  G71F314_7884            6866.70       0.00       0.00    5102.65    1763.73       0.00    1763.73        4.94     0.06   0.257
  G71F315_7885            6866.70       0.00       0.00    4296.50    2569.34       0.00    2569.34        8.27     0.10   0.374
  G71F360_7886            6866.70       0.00       0.00    5187.79    1678.62       0.00    1678.62        4.75     0.06   0.244
  G71F360_7887            6866.70       0.00       0.00    4396.06    2470.63       0.00    2470.63        0.47     0.01   0.360
  G71F370_7888            6866.70       0.00       0.00    4870.55    1995.46       0.00    1995.46        8.48     0.10   0.291
  G71F380_7889            6866.70       0.00       0.00    4941.28    1925.08       0.00    1925.08        4.89     0.06   0.280
  G71F390_7890            6866.70       0.00       0.00    4550.56    2315.11       0.00    2315.11       10.88     0.13   0.337
  G71F391_7891            6866.70       0.00       0.00    4854.76    2011.55       0.00    2011.55        5.25     0.06   0.293
  G71F392_7892            6866.70       0.00       0.00    4800.51    2065.78       0.00    2065.78        5.25     0.06   0.301
  G71F393_7893            6866.70       0.00       0.00    5247.54    1618.35       0.00    1618.35       12.64     0.15   0.236
  G71F394_7894            6866.70       0.00       0.00    4913.81    1952.54       0.00    1952.54        4.84     0.06   0.284
  G71R060_7895            6866.70       0.00       0.00    4046.55    2816.17       0.00    2816.17       49.28     0.59   0.410
  G71R130_7896            6866.70       0.00       0.00    1644.58    5220.79       0.00    5220.79        6.42     0.08   0.760
  G71R132_7897            6866.70       0.00       0.00    1089.06    5775.90       0.00    5775.90        7.45     0.09   0.841
  G72F011_7902            6866.70       0.00       0.00    4350.06    2516.21       0.00    2516.21        4.78     0.06   0.366
  G72F011_7903            6866.70       0.00       0.00    2765.91    4100.75       0.00    4100.75        1.89     0.02   0.597
  G72F012_7904            6866.70       0.00       0.00    5369.76    1496.40       0.00    1496.40        8.78     0.10   0.218
  G72F012_7905            6866.70       0.00       0.00    2303.78    4562.06       0.00    4562.06        5.06     0.06   0.664
  G72F013_7906            6866.70       0.00       0.00    5656.10    1210.59       0.00    1210.59        1.79     0.02   0.176
  G72F013_7907            6866.70       0.00       0.00    1786.72    5079.76       0.00    5079.76        2.49     0.03   0.740
  G72F014_7908            6866.70       0.00       0.00    5939.01     927.69       0.00     927.69        0.72     0.01   0.135
  G72F014_7909            6866.70       0.00       0.00    1901.39    4965.33       0.00    4965.33        1.59     0.02   0.723
  G72F015_7910            6866.70       0.00       0.00    5216.64    1649.98       0.00    1649.98        2.64     0.03   0.240
  G72F015_7911            6866.70       0.00       0.00    2434.25    4432.30       0.00    4432.30        2.30     0.03   0.645
  G72F030_7912            6866.70       0.00       0.00    1726.29    5140.17       0.00    5140.17        2.52     0.03   0.749
  G72F710_8051            6866.70       0.00       0.00    2708.23    4156.62       0.00    4156.62       10.97     0.13   0.605
  G72F720_8052            6866.70       0.00       0.00    5025.05    1841.16       0.00    1841.16        6.67     0.08   0.268
  G72F730_8053            6866.70       0.00       0.00    4523.78    2342.03       0.00    2342.03        9.27     0.11   0.341
  G72F740_8054            6866.70       0.00       0.00    5096.47    1770.09       0.00    1770.09        3.13     0.04   0.258
  G72F760_8055            6866.70       0.00       0.00    4297.18    2568.30       0.00    2568.30       11.81     0.14   0.374
  G72F766_8056            6866.70       0.00       0.00    4539.58    2326.68       0.00    2326.68        5.10     0.06   0.339
  G72F767_8057            6866.70       0.00       0.00    4312.29    2554.23       0.00    2554.23        2.96     0.04   0.372
  G72F768_8058            6866.70       0.00       0.00    4760.00    2106.52       0.00    2106.52        3.20     0.04   0.307
  G72F770_8059            6866.70       0.00       0.00    4053.42    2811.74       0.00    2811.74       13.97     0.17   0.409
  G72F771_8060            6866.70       0.00       0.00    4102.86    2762.54       0.00    2762.54       11.74     0.14   0.402
  G72F771_80602           6866.70       0.00       0.00    4619.92    2246.79       0.00    2246.79        1.60     0.02   0.327
  G72F773_8061            6866.70       0.00       0.00    5049.09    1817.19       0.00    1817.19        5.92     0.07   0.265
  G72F774_8062            6866.70       0.00       0.00    4956.39    1910.01       0.00    1910.01        4.56     0.05   0.278
  G72F810_8063            6866.70       0.00       0.00    4235.38    2630.06       0.00    2630.06       11.89     0.14   0.383
  G72F812_8064            6866.70       0.00       0.00    4595.88    2270.53       0.00    2270.53        3.95     0.05   0.331
  G72F813_8065            6866.70       0.00       0.00    4608.25    2257.80       0.00    2257.80        7.22     0.09   0.329
  G73F360_8232            6866.70       0.00       0.00    6131.28     735.40       0.00     735.40        2.32     0.03   0.107
  G73F361_8233            6866.70       0.00       0.00    5879.27     987.18       0.00     987.18        6.48     0.08   0.144
  G73F363_8234            6866.70       0.00       0.00    5312.08    1554.41       0.00    1554.41        4.04     0.05   0.226
  G73F363_8235            6866.70       0.00       0.00    5557.22    1309.49       0.00    1309.49        1.44     0.02   0.191
  G73F363_8236            6866.70       0.00       0.00    5643.74    1222.96       0.00    1222.96        0.57     0.01   0.178
  G73F381_8237            6866.70       0.00       0.00    4838.28    2028.06       0.00    2028.06        4.93     0.06   0.295
  G73F382_8238            6866.70       0.00       0.00    4271.78    2594.11       0.00    2594.11        7.76     0.09   0.378
  G73F385_8239            6866.70       0.00       0.00    5757.04    1109.42       0.00    1109.42        5.51     0.07   0.162
  G73F400_8240            6866.70       0.00       0.00    5747.43    1118.98       0.00    1118.98        6.64     0.08   0.163
  G73F410_8241            6866.70       0.00       0.00    5636.19    1230.17       0.00    1230.17        6.95     0.08   0.179
  G73F420_8242            6866.70       0.00       0.00    5719.28    1147.31       0.00    1147.31        3.45     0.04   0.167
  G73F430_8243            6866.70       0.00       0.00    6517.88     348.78       0.00     348.78        4.35     0.05   0.051
  G73F500_8244            6866.70       0.00       0.00    4954.33    1912.10       0.00    1912.10        4.21     0.05   0.278
  G73F510_8245            6866.70       0.00       0.00    4640.52    2225.72       0.00    2225.72        5.50     0.07   0.324
  G73F510_8246            6866.70       0.00       0.00    2580.51    4285.95       0.00    4285.95        2.70     0.03   0.624
  G73F520_8247            6866.70       0.00       0.00    4638.46    2228.05       0.00    2228.05        3.25     0.04   0.324
  G72F040_7913            6866.70       0.00       0.00    3880.37    2985.37       0.00    2985.37        7.88     0.09   0.435
  G72F040_7914            6866.70       0.00       0.00    2104.64    4762.04       0.00    4762.04        1.71     0.02   0.693
  G72F050_7915            6866.70       0.00       0.00    2830.46    4035.19       0.00    4035.19        6.58     0.08   0.588
  G72F060_7916            6866.70       0.00       0.00    2905.30    3959.48       0.00    3959.48       12.08     0.14   0.577
  G72F062_7917            6866.70       0.00       0.00    3456.01    3408.53       0.00    3408.53       16.46     0.20   0.496
  G72F067_7918            6866.70       0.00       0.00    3703.90    3162.34       0.00    3162.34        4.27     0.05   0.461
  G72F068_7919            6866.70       0.00       0.00    6338.65     527.95       0.00     527.95        4.90     0.06   0.077
  G72F069_7920            6866.70       0.00       0.00    4750.39    2115.77       0.00    2115.77        6.50     0.08   0.308
  G72F070_7921            6866.70       0.00       0.00    1458.49    5406.80       0.00    5406.80        6.54     0.08   0.787
  G72F071_7922            6866.70       0.00       0.00    4700.26    2166.26       0.00    2166.26        3.21     0.04   0.315
  G72F080_7923            6866.70       0.00       0.00    5421.26    1444.75       0.00    1444.75       11.85     0.14   0.210
  G72F080_7924            6866.70       0.00       0.00    1317.03    5549.31       0.00    5549.31        2.83     0.03   0.808
  G72F082_7925            6866.70       0.00       0.00    4480.52    2384.83       0.00    2384.83       14.38     0.17   0.347
  G72F083_7926            6866.70       0.00       0.00    4403.62    2461.81       0.00    2461.81       13.00     0.15   0.359
  G72F084_7927            6866.70       0.00       0.00    5383.50    1482.98       0.00    1482.98        4.36     0.05   0.216
  G72F086_7928            6866.70       0.00       0.00    5467.27    1399.34       0.00    1399.34        2.81     0.03   0.204
  G72F090_7929            6866.70       0.00       0.00    1574.54    5291.18       0.00    5291.18        5.03     0.06   0.771
  G72F091_7930            6866.70       0.00       0.00    5296.98    1569.33       0.00    1569.33        6.39     0.08   0.229
  G72F092_7931            6866.70       0.00       0.00    5217.32    1649.24       0.00    1649.24        3.15     0.04   0.240
  G72F093_7932            6866.70       0.00       0.00    3777.37    3087.46       0.00    3087.46       15.59     0.19   0.450
  G72F095_7933            6866.70       0.00       0.00    5126.68    1739.53       0.00    1739.53        7.05     0.08   0.253
  G72F100_7934            6866.70       0.00       0.00    2247.47    4618.58       0.00    4618.58        4.16     0.05   0.673
  G72F101_7935            6866.70       0.00       0.00    6323.55     543.15       0.00     543.15        0.34     0.00   0.079
  G72F110_7936            6866.70       0.00       0.00    6850.91      15.79       0.00      15.79        0.01     0.00   0.002
  G72F110_7936_1          6866.70       0.00       0.00    4098.05    2768.63       0.00    2768.63        0.80     0.01   0.403
  G72F120_7937            6866.70       0.00       0.00    3585.79    3279.52       0.00    3279.52       10.43     0.12   0.478
  G72F250_7938            6866.70       0.00       0.00    5571.64    1295.00       0.00    1295.00        2.51     0.03   0.189
  G72F252_7939            6866.70       0.00       0.00    4699.57    2166.23       0.00    2166.23       10.18     0.12   0.315
  G72F252_7940            6866.70       0.00       0.00    5465.90    1400.25       0.00    1400.25        9.68     0.12   0.204
  G72F253_7941            6866.70       0.00       0.00    3792.48    3074.07       0.00    3074.07        2.58     0.03   0.448
  G72F260_7942            6866.70       0.00       0.00    1838.22    5028.42       0.00    5028.42        1.91     0.02   0.732
  G72F260_7943            6866.70       0.00       0.00    1516.17    5349.22       0.00    5349.22        6.21     0.07   0.779
  G72F280_7944            6866.70       0.00       0.00    1753.76    5112.48       0.00    5112.48        3.27     0.04   0.745
  G72F281_7945            6866.70       0.00       0.00    3760.89    3105.63       0.00    3105.63        2.70     0.03   0.452
  G72F290_7946            6866.70       0.00       0.00    4522.41    2343.31       0.00    2343.31       10.26     0.12   0.341
  G72F300_7947            6866.70       0.00       0.00    2584.63    4282.05       0.00    4282.05        0.86     0.01   0.624
  G72F310_7948            6866.70       0.00       0.00    5272.26    1594.44       0.00    1594.44        1.77     0.02   0.232
  G72F310_7949            6866.70       0.00       0.00    1784.66    5082.04       0.00    5082.04        0.71     0.01   0.740
  G72F311_7950            6866.70       0.00       0.00    1709.81    5155.97       0.00    5155.97        4.90     0.06   0.751
  G72F311_7951            6866.70       0.00       0.00    5427.44    1439.23       0.00    1439.23        2.06     0.02   0.210
  G72F313_7952            6866.70       0.00       0.00    5605.29    1261.19       0.00    1261.19        4.91     0.06   0.184
  G72F314_7953            6866.70       0.00       0.00    4118.65    2747.53       0.00    2747.53        5.11     0.06   0.400
  G72F314_7954            6866.70       0.00       0.00    4091.87    2774.42       0.00    2774.42        4.30     0.05   0.404
  G72F315_7955            6866.70       0.00       0.00    2202.15    4664.26       0.00    4664.26        2.80     0.03   0.679
  G72F316_7956            6866.70       0.00       0.00    3460.13    3405.44       0.00    3405.44        8.11     0.10   0.496
  G72F316_7957            6866.70       0.00       0.00    5480.32    1386.39       0.00    1386.39        1.68     0.02   0.202
  G72F340_7973            6866.70       0.00       0.00    1963.19    4903.56       0.00    4903.56        1.18     0.01   0.714
  G72F350_7974            6866.70       0.00       0.00    4863.00    2001.90       0.00    2001.90       25.98     0.31   0.292
  G72F350_7975            6866.70       0.00       0.00    2447.98    4418.29       0.00    4418.29        3.40     0.04   0.643
  G72F360_17874           6866.70       0.00       0.00    3481.42    3383.97       0.00    3383.97        9.48     0.11   0.493
  G72F380_7976            6866.70       0.00       0.00    3081.78    3784.97       0.00    3784.97        1.25     0.01   0.551
  G72F390_7977            6866.70       0.00       0.00    6768.51      98.19       0.00      98.19        0.33     0.00   0.014
  G72F390_7978            6866.70       0.00       0.00    3185.46    3681.01       0.00    3681.01        2.80     0.03   0.536
  G72F390_7979            6866.70       0.00       0.00    3753.34    3113.37       0.00    3113.37        1.59     0.02   0.453
  G72F410_7980            6866.70       0.00       0.00    6787.74      78.97       0.00      78.97        0.21     0.00   0.011
  G72F410_7980_1          6866.70       0.00       0.00    5811.29    1055.22       0.00    1055.22        4.91     0.06   0.154
  G72F410_7981            6866.70       0.00       0.00    2664.28    4201.97       0.00    4201.97        3.57     0.04   0.612
  G72F420_7982            6866.70       0.00       0.00    6323.55     543.16       0.00     543.16        1.55     0.02   0.079
  G72F420_7983            6866.70       0.00       0.00    3986.12    2880.56       0.00    2880.56        0.78     0.01   0.419
  G72F420_7984            6866.70       0.00       0.00    3023.41    3843.22       0.00    3843.22        2.04     0.02   0.560
  G72F420_7985            6866.70       0.00       0.00    3746.47    3120.23       0.00    3120.23        0.69     0.01   0.454
  G72F430_7986            6866.70       0.00       0.00    6784.99      81.71       0.00      81.71        0.21     0.00   0.012
  G72F430_7987            6866.70       0.00       0.00    3231.47    3635.21       0.00    3635.21        1.78     0.02   0.529
  G72F430_7988            6866.70       0.00       0.00    3813.08    3053.63       0.00    3053.63        0.55     0.01   0.445
  G72F440_7989            6866.70       0.00       0.00    6780.87      85.83       0.00      85.83        0.23     0.00   0.012
  G72F440_7990            6866.70       0.00       0.00    3572.06    3294.65       0.00    3294.65        1.61     0.02   0.480
  G72F440_7991            6866.70       0.00       0.00    1845.08    5021.58       0.00    5021.58        1.81     0.02   0.731
  G72F460_7992            6866.70       0.00       0.00    6788.42      78.28       0.00      78.28        0.20     0.00   0.011
  G72F460_7993            6866.70       0.00       0.00    2834.58    4032.08       0.00    4032.08        1.90     0.02   0.587
  G72F460_7994            6866.70       0.00       0.00    3262.37    3604.36       0.00    3604.36        1.48     0.02   0.525
  G72F470_7995            6866.70       0.00       0.00    5009.95    1856.76       0.00    1856.76        0.59     0.01   0.270
  G72F470_7996            6866.70       0.00       0.00    2680.76    4185.91       0.00    4185.91        1.80     0.02   0.610
  G72F480_7997            6866.70       0.00       0.00    6784.30      82.40       0.00      82.40        0.23     0.00   0.012
  G72F480_7998            6866.70       0.00       0.00    3603.65    3263.07       0.00    3263.07        1.60     0.02   0.475
  G72F490_7999            6866.70       0.00       0.00    6788.42      78.28       0.00      78.28        0.14     0.00   0.011
  G72F490_8000            6866.70       0.00       0.00    3646.22    3220.47       0.00    3220.47        0.97     0.01   0.469
  G72F491_8001            6866.70       0.00       0.00    6369.55     497.12       0.00     497.12        2.74     0.03   0.072
  G72F491_8002            6866.70       0.00       0.00    3311.81    3554.75       0.00    3554.75        2.42     0.03   0.518
  G72F492_8003            6866.70       0.00       0.00    5546.92    1319.77       0.00    1319.77        1.74     0.02   0.192
  G72F492_8004            6866.70       0.00       0.00    3413.44    3453.27       0.00    3453.27        1.04     0.01   0.503
  G72F494_8005            6866.70       0.00       0.00    3837.80    3021.58       0.00    3021.58      110.56     1.32   0.440
  G72F494_8006            6866.70       0.00       0.00    3664.07    3202.62       0.00    3202.62        0.93     0.01   0.466
  G72F550_8007            6866.70       0.00       0.00    1559.43    5306.89       0.00    5306.89        2.97     0.04   0.773
  G72F550_8008            6866.70       0.00       0.00    5669.84    1196.86       0.00    1196.86        0.93     0.01   0.174
  G72F561_8009            6866.70       0.00       0.00    5462.46    1403.47       0.00    1403.47       13.89     0.17   0.204
  G72F562_8010            6866.70       0.00       0.00    4339.07    2526.78       0.00    2526.78        8.26     0.10   0.368
  G72F580_8011            6866.70       0.00       0.00    3441.59    3423.95       0.00    3423.95        8.29     0.10   0.499
  G72F581_8012            6866.70       0.00       0.00    5351.91    1514.44       0.00    1514.44        6.00     0.07   0.221
  G72F582_8013            6866.70       0.00       0.00    4353.49    2511.95       0.00    2511.95       12.56     0.15   0.366
  G72F584_8014            6866.70       0.00       0.00    4109.04    2756.58       0.00    2756.58        9.65     0.11   0.401
  G72F585_8015            6866.70       0.00       0.00    4218.90    2646.90       0.00    2646.90        8.34     0.10   0.385
  G72F586_8016            6866.70       0.00       0.00    4006.72    2859.19       0.00    2859.19        6.86     0.08   0.416
  G72F588_8017            6866.70       0.00       0.00    4348.68    2516.16       0.00    2516.16       19.95     0.24   0.366
  G72F590_8018            6866.70       0.00       0.00    5118.44    1747.37       0.00    1747.37       12.74     0.15   0.254
  G72F610_8019            6866.70       0.00       0.00    5923.91     942.45       0.00     942.45        8.93     0.11   0.137
  G72F620_8020            6866.70       0.00       0.00    4878.11    1988.08       0.00    1988.08        6.56     0.08   0.290
  G72F630_8021            6866.70       0.00       0.00    5008.57    1857.35       0.00    1857.35       10.29     0.12   0.270
  G72F631_8022            6866.70       0.00       0.00    4053.42    2812.17       0.00    2812.17        9.76     0.12   0.410
  G72F632_8023            6866.70       0.00       0.00    4925.49    1941.04       0.00    1941.04        3.26     0.04   0.283
  G72F633_8024            6866.70       0.00       0.00    4652.88    2213.80       0.00    2213.80        1.84     0.02   0.322
  G72F635_8025            6866.70       0.00       0.00    3931.19    2934.92       0.00    2934.92        5.34     0.06   0.427
  G72F636_8026            6866.70       0.00       0.00    5064.88    1801.71       0.00    1801.71        2.79     0.03   0.262
  G72F637_8027            6866.70       0.00       0.00    5229.00    1637.60       0.00    1637.60        2.88     0.03   0.238
  G72F642_8028            6866.70       0.00       0.00    4860.94    2005.49       0.00    2005.49        4.09     0.05   0.292
  G72F644_8029            6866.70       0.00       0.00    4194.87    2671.39       0.00    2671.39        4.62     0.05   0.389
  G72F645_8030            6866.70       0.00       0.00    5145.91    1720.80       0.00    1720.80        1.05     0.01   0.251
  G72F647_8031            6866.70       0.00       0.00    5709.66    1156.99       0.00    1156.99        2.46     0.03   0.168
  G72F647_8031_1          6866.70       0.00       0.00    6866.70       0.00       0.00       0.00        0.00     0.00   0.000
  G72F648_8032            6866.70       0.00       0.00    5792.75    1073.96       0.00    1073.96        1.58     0.02   0.156
  G72F660_8033            6866.70       0.00       0.00    4937.16    1929.09       0.00    1929.09        5.98     0.07   0.281
  G72F660_8034            6866.70       0.00       0.00    2636.13    4230.48       0.00    4230.48        2.07     0.02   0.616
  G72F661_8035            6866.70       0.00       0.00    6802.16      64.55       0.00      64.55        0.07     0.00   0.009
  G72F661_8036            6866.70       0.00       0.00    3012.42    3854.29       0.00    3854.29        1.58     0.02   0.561
  G72F662_8037            6866.70       0.00       0.00    5771.46    1095.24       0.00    1095.24        1.73     0.02   0.159
  G72F662_8038            6866.70       0.00       0.00    2261.89    4604.80       0.00    4604.80        1.70     0.02   0.671
  G72F663_8039            6866.70       0.00       0.00    5029.86    1836.75       0.00    1836.75        2.61     0.03   0.267
  G72F663_8040            6866.70       0.00       0.00    3293.96    3572.82       0.00    3572.82        0.71     0.01   0.520
  G72F664_8041            6866.70       0.00       0.00    4308.17    2557.03       0.00    2557.03       15.01     0.18   0.372
  G72F664_8042            6866.70       0.00       0.00    4381.64    2485.05       0.00    2485.05        0.37     0.00   0.362
  G72F670_8043            6866.70       0.00       0.00    4911.75    1954.84       0.00    1954.84        2.70     0.03   0.285
  G72F671_8044            6866.70       0.00       0.00    5491.30    1374.91       0.00    1374.91        8.68     0.10   0.200
  G72F672_8045            6866.70       0.00       0.00    4689.27    2176.87       0.00    2176.87        6.49     0.08   0.317
  G72F674_8046            6866.70       0.00       0.00    3729.31    3136.28       0.00    3136.28        8.66     0.10   0.457
  G72F676_8047            6866.70       0.00       0.00    4216.16    2649.62       0.00    2649.62        8.51     0.10   0.386
  G72F677_8048            6866.70       0.00       0.00    4766.18    2099.76       0.00    2099.76        8.90     0.11   0.306
  G72F678_8049            6866.70       0.00       0.00    4576.66    2289.27       0.00    2289.27        8.24     0.10   0.333
  G72F700_8050            6866.70       0.00       0.00    4814.25    2052.05       0.00    2052.05        5.25     0.06   0.299
  G72F814_8066            6866.70       0.00       0.00    4452.37    2413.39       0.00    2413.39        9.53     0.11   0.351
  G72F820_8067            6866.70       0.00       0.00    4315.04    2550.82       0.00    2550.82        8.09     0.10   0.371
  G72F821_8068            6866.70       0.00       0.00    4590.39    2275.46       0.00    2275.46        9.19     0.11   0.331
  G72F830_8069            6866.70       0.00       0.00    4053.42    2812.65       0.00    2812.65        5.82     0.07   0.410
  G72F831_8070            6866.70       0.00       0.00    4312.98    2553.57       0.00    2553.57        2.76     0.03   0.372
  G72F832_8071            6866.70       0.00       0.00    4796.39    2069.71       0.00    2069.71        7.14     0.08   0.301
  G72F833_8072            6866.70       0.00       0.00    4987.97    1878.17       0.00    1878.17        7.40     0.09   0.274
  G72F834_8073            6866.70       0.00       0.00    4575.28    2291.33       0.00    2291.33        2.41     0.03   0.334
  G72F835_8074            6866.70       0.00       0.00    5041.53    1824.52       0.00    1824.52        8.67     0.10   0.266
  G72F870_8075            6866.70       0.00       0.00    3584.42    3280.70       0.00    3280.70       11.94     0.14   0.478
  G72F872_8076            6866.70       0.00       0.00    3288.46    3576.39       0.00    3576.39       12.95     0.15   0.521
  G72F873_8077            6866.70       0.00       0.00    5809.92    1056.53       0.00    1056.53        6.22     0.07   0.154
  G72F874_8078            6866.70       0.00       0.00    4613.05    2253.20       0.00    2253.20        5.30     0.06   0.328
  G72F880_8079            6866.70       0.00       0.00    3328.98    3535.80       0.00    3535.80       13.75     0.16   0.515
  G72F881_8080            6866.70       0.00       0.00    3702.53    3163.23       0.00    3163.23        7.37     0.09   0.461
  G72F890_8081            6866.70       0.00       0.00    4426.96    2438.93       0.00    2438.93        8.12     0.10   0.355
  G72F891_8082            6866.70       0.00       0.00    4263.54    2601.66       0.00    2601.66       14.78     0.18   0.379
  G72F893_8083            6866.70       0.00       0.00    2798.18    4066.25       0.00    4066.25       14.19     0.17   0.592
  G72F894_8084            6866.70       0.00       0.00    5036.73    1829.46       0.00    1829.46        7.04     0.08   0.266
  G72K050_8085            6866.70       0.00       0.00    1372.65    5493.74       0.00    5493.74        2.69     0.03   0.800
  G72K100_8086            6866.70       0.00       0.00    5332.00    1534.66       0.00    1534.66        2.27     0.03   0.223
  G72K100_8086_1          6866.70       0.00       0.00    4144.74    2721.87       0.00    2721.87        2.31     0.03   0.396
  G72K100_8087            6866.70       0.00       0.00    1951.52    4914.75       0.00    4914.75        3.24     0.04   0.716
  G72K256_8088            6866.70       0.00       0.00    5904.68     961.93       0.00     961.93        3.33     0.04   0.140
  G72K258_8089            6866.70       0.00       0.00    5212.51    1653.81       0.00    1653.81        5.80     0.07   0.241
  G72K312_8090            6866.70       0.00       0.00    1865.68    5000.04       0.00    5000.04        5.20     0.06   0.728
  G72K312_8091            6866.70       0.00       0.00    5437.74    1428.60       0.00    1428.60        6.37     0.08   0.208
  G72K330_8092            6866.70       0.00       0.00    2306.53    4560.20       0.00    4560.20        1.09     0.01   0.664
  G72K332_8093            6866.70       0.00       0.00    3673.69    3192.17       0.00    3192.17        6.61     0.08   0.465
  G72K560_8094            6866.70       0.00       0.00    4047.24    2818.85       0.00    2818.85        5.64     0.07   0.411
  G72K563_8095            6866.70       0.00       0.00    3467.00    3397.56       0.00    3397.56       16.38     0.19   0.495
  G72R161_8108            6866.70       0.00       0.00    4218.90    2643.47       0.00    2643.47       61.06     0.73   0.385
  G72R170_8110            6866.70       0.00       0.00    3837.11    3029.70       0.00    3029.70        1.64     0.02   0.441
  G72R171_8111            6866.70       0.00       0.00    3985.43    2881.21       0.00    2881.21        2.07     0.02   0.420
  G72R180_8112            6866.70       0.00       0.00    2417.08    4449.15       0.00    4449.15        3.56     0.04   0.648
  G72R200_17750_1         6866.70       0.00       0.00    6787.05      79.65       0.00      79.65        1.27     0.02   0.012
  G72R200_17750_2         6866.70       0.00       0.00    4808.75    2056.47       0.00    2056.47       19.35     0.23   0.299
  G72R200_17750_3         6866.70       0.00       0.00    4369.97    2494.11       0.00    2494.11       32.12     0.38   0.363
  G72R200_17750_7         6866.70       0.00       0.00    6816.58      50.13       0.00      50.13        0.17     0.00   0.007
  G72R205_17757_10        6866.70       0.00       0.00    3770.51    3093.96       0.00    3093.96       19.43     0.23   0.451
  G72R205_17757_11        6866.70       0.00       0.00    4094.62    2769.34       0.00    2769.34       29.74     0.35   0.403
  G72R205_17757_19        6866.70       0.00       0.00    6850.91      15.79       0.00      15.79        0.04     0.00   0.002
  G72R205_17757_20        6866.70       0.00       0.00    6714.95     151.75       0.00     151.75        0.81     0.01   0.022
  G72R205_17757_22        6866.70       0.00       0.00    6866.70       0.00       0.00       0.00        0.00     0.00   0.000
  G72R211_8116            6866.70       0.00       0.00    4066.46    2797.38       0.00    2797.38       30.94     0.37   0.407
  G72R211_81162           6866.70       0.00       0.00    3648.28    3217.26       0.00    3217.26        8.82     0.10   0.469
  G72R230_8117            6866.70       0.00       0.00    3684.67    3179.63       0.00    3179.63       20.60     0.25   0.463
  G72R240_8118            6866.70       0.00       0.00    3680.55    3185.41       0.00    3185.41        5.96     0.07   0.464
  G72R260_8119            6866.70       0.00       0.00    5134.92    1731.55       0.00    1731.55        4.09     0.05   0.252
  G72R270_8120            6866.70       0.00       0.00    4550.56    2315.86       0.00    2315.86        3.82     0.05   0.337
  G72R271_8121            6866.70       0.00       0.00    3795.91    3070.31       0.00    3070.31        4.45     0.05   0.447
  G72R654_8151            6866.70       0.00       0.00    4014.96    2850.10       0.00    2850.10       14.71     0.18   0.415
  G72R655_8152            6866.70       0.00       0.00    6454.02     412.68       0.00     412.68        2.12     0.03   0.060
  G72R656_8153            6866.70       0.00       0.00    4635.71    2229.73       0.00    2229.73       14.38     0.17   0.325
  G72R657_8154            6866.70       0.00       0.00    4433.14    2432.44       0.00    2432.44       11.34     0.13   0.354
  G72R658_8155            6866.70       0.00       0.00    3384.60    3481.47       0.00    3481.47        4.94     0.06   0.507
  G72R659_8156            6866.70       0.00       0.00    6570.06     296.64       0.00     296.64        0.21     0.00   0.043
  G72R659_8157            6866.70       0.00       0.00    4269.72    2595.76       0.00    2595.76       11.73     0.14   0.378
  G72R661_8158            6866.70       0.00       0.00    4882.91    1983.08       0.00    1983.08        8.69     0.10   0.289
  G72R662_8159            6866.70       0.00       0.00    4956.39    1909.95       0.00    1909.95        5.16     0.06   0.278
  G72R820_8160            6866.70       0.00       0.00    4180.45    2685.40       0.00    2685.40        7.81     0.09   0.391
  G72R890_8161            6866.70       0.00       0.00    4724.98    2141.49       0.00    2141.49        3.64     0.04   0.312
  G72R891_8162            6866.70       0.00       0.00    4340.44    2524.91       0.00    2524.91       13.51     0.16   0.368
  G72R892_8163            6866.70       0.00       0.00    3782.18    3082.57       0.00    3082.57       16.46     0.20   0.449
  G72R893_8164            6866.70       0.00       0.00    5754.30    1112.34       0.00    1112.34        2.75     0.03   0.162
  G72R894_8165            6866.70       0.00       0.00    3674.37    3191.30       0.00    3191.30        7.88     0.09   0.465
  G73F000_8166            6866.70       0.00       0.00    3823.38    3042.36       0.00    3042.36        7.76     0.09   0.443
  G73F001_8167            6866.70       0.00       0.00    4381.64    2484.96       0.00    2484.96        2.44     0.03   0.362
  G73F002_8168            6866.70       0.00       0.00    3996.42    2869.15       0.00    2869.15        9.61     0.11   0.418
  G73F003_8169            6866.70       0.00       0.00    4604.13    2261.92       0.00    2261.92        7.17     0.09   0.329
  G73F004_8170            6866.70       0.00       0.00    4052.04    2812.52       0.00    2812.52       20.81     0.25   0.410
  G73F005_8171            6866.70       0.00       0.00    4559.49    2307.20       0.00    2307.20        1.80     0.02   0.336
  G73F006_8172            6866.70       0.00       0.00    4819.74    2046.00       0.00    2046.00       11.70     0.14   0.298
  G73F006_8173            6866.70       0.00       0.00    5827.77    1038.87       0.00    1038.87        2.75     0.03   0.151
  G73F007_8174            6866.70       0.00       0.00    4396.06    2470.26       0.00    2470.26        4.40     0.05   0.360
  G73F008_8175            6866.70       0.00       0.00    4507.30    2358.27       0.00    2358.27       11.89     0.14   0.343
  G73F010_8176            6866.70       0.00       0.00    5028.49    1837.82       0.00    1837.82        5.57     0.07   0.268
  G73F020_8177            6866.70       0.00       0.00    4959.82    1906.71       0.00    1906.71        3.26     0.04   0.278
  G73F030_8178            6866.70       0.00       0.00    5455.60    1411.03       0.00    1411.03        2.67     0.03   0.205
  G73F030_8179            6866.70       0.00       0.00    4652.88    2213.49       0.00    2213.49        4.36     0.05   0.322
  G73F040_8180            6866.70       0.00       0.00    4509.36    2356.52       0.00    2356.52        8.51     0.10   0.343
  G73F042_8181            6866.70       0.00       0.00    5001.02    1865.04       0.00    1865.04        8.37     0.10   0.272
  G73F042_8182            6866.70       0.00       0.00    3589.23    3276.98       0.00    3276.98        4.36     0.05   0.477
  G73F050_8183            6866.70       0.00       0.00    3871.45    2994.25       0.00    2994.25        8.20     0.10   0.436
  G73F060_8184            6866.70       0.00       0.00    4726.35    2140.06       0.00    2140.06        4.11     0.05   0.312
  G73F070_8185            6866.70       0.00       0.00    4214.78    2650.70       0.00    2650.70       11.35     0.14   0.386
  G73F071_8186            6866.70       0.00       0.00    4480.52    2385.60       0.00    2385.60        6.13     0.07   0.347
  G73F072_8187            6866.70       0.00       0.00    4821.80    2044.17       0.00    2044.17        8.77     0.10   0.298
  G73F080_8188            6866.70       0.00       0.00    4514.17    2351.91       0.00    2351.91        6.63     0.08   0.343
  G73F090_8189            6866.70       0.00       0.00    4865.06    2001.05       0.00    2001.05        7.30     0.09   0.291
  G73F100_8190            6866.70       0.00       0.00    4808.07    2058.01       0.00    2058.01        7.49     0.09   0.300
  G73F110_8191            6866.70       0.00       0.00    4205.17    2660.38       0.00    2660.38       10.67     0.13   0.387
  G73F111_8192            6866.70       0.00       0.00    4866.43    2000.22       0.00    2000.22        2.18     0.03   0.291
  G73F112_8193            6866.70       0.00       0.00    4509.36    2356.54       0.00    2356.54        8.30     0.10   0.343
  G73F113_8194            6866.70       0.00       0.00    4170.84    2694.76       0.00    2694.76       10.02     0.12   0.392
  G73F114_8195            6866.70       0.00       0.00    5137.67    1728.62       0.00    1728.62        6.10     0.07   0.252
  G73F115_8196            6866.70       0.00       0.00    5022.31    1843.51       0.00    1843.51       11.98     0.14   0.268
  G73F116_8197            6866.70       0.00       0.00    4415.98    2449.74       0.00    2449.74        9.85     0.12   0.357
  G73F117_8198            6866.70       0.00       0.00    3965.52    2900.30       0.00    2900.30        7.45     0.09   0.422
  G73F120_8199            6866.70       0.00       0.00    4692.02    2173.97       0.00    2173.97        8.00     0.10   0.317
  G73F130_8200            6866.70       0.00       0.00    4731.16    2134.48       0.00    2134.48       12.36     0.15   0.311
  G73F140_8201            6866.70       0.00       0.00    4495.63    2370.19       0.00    2370.19        9.08     0.11   0.345
  G73F150_8202            6866.70       0.00       0.00    4542.32    2323.51       0.00    2323.51        9.18     0.11   0.338
  G73F160_8203            6866.70       0.00       0.00    4229.89    2636.11       0.00    2636.11        6.64     0.08   0.384
  G73F170_8205            6866.70       0.00       0.00    4933.73    1932.28       0.00    1932.28        8.75     0.10   0.281
  G73F180_8206            6866.70       0.00       0.00    4215.47    2650.50       0.00    2650.50        6.89     0.08   0.386
  G73F190_8207            6866.70       0.00       0.00    4593.82    2272.34       0.00    2272.34        6.02     0.07   0.331
[...]
  G73F040_G73F030_l1         43.35     43.37     43.35     43.98        43.33
  G73F041_G73K040_l1         43.98     43.98     43.98      0.01         0.01
  G73F042_G73K041_l1         43.50     43.50     43.98      0.01         0.01
  G73F050_G73K040_l1         42.67     42.67     43.29      0.01         0.04
  G73F060_G73F050_l1         43.98     43.98     43.98     37.78        37.98
  G73F070_G73F060_l1         43.98     43.98     43.98     43.98        43.98
  G73F071_G73F070_l1         43.98     43.98     43.98     12.22        12.27
  G73F072_G73F071_l1         43.98     43.98     43.98     19.31        19.40
  G73F080_G73F070_l1         43.98     43.98     43.98     43.98        43.98
  G73F090_G73F080_l1         43.98     43.98     43.98     43.96        41.08
  G73F100_G73F090_l1         43.98     43.98     43.98     43.98        43.98
  G73F110_G73F100_l1         43.98     43.98     43.98      0.01         0.04
  G73F111_G73F110_l1         43.98     43.98     43.98     25.38         0.01
  G73F112_G73F111_l1         43.98     43.98     43.98     43.98        43.98
  G73F113_G73F112_l1         43.98     43.98     43.98     43.98        43.98
  G73F114_G73F113_l1         43.98     43.98     43.98     43.98        43.98
  G73F115_G73F114_l1         43.98     43.98     43.98      0.01         0.01
  G73F116_G73F115_l1         43.98     43.98     43.98     42.23        42.09
  G73F117_G73F116_l1         43.98     43.98     43.98      0.01         0.01
  G73F120_G73F110_l1         43.98     43.98     43.98      2.43         9.09
  G73F130_G73F120_l1         43.98     43.98     43.98     43.98        43.98
  G73F140_G73F130_l1         43.98     43.98     43.98     43.98        43.98
  G73F150_G73F140_l1         43.98     43.98     43.98      0.01         0.01
  G73F160_G73F150_l1         43.98     43.98     43.98      0.01         0.01
  G73F161_G73F160_l1         43.98     43.98     43.98      0.01         0.01
  G73F170_G73F160_l1         43.98     43.98     43.98     33.44        28.83
  G73F180_G73F170_l1         43.98     43.98     43.98     43.98        43.98
  G73F190_G73F180_l1         43.98     43.98     43.98      0.01         0.01
  G73F210_G73F190_l1         43.98     43.98     43.98      0.01         0.01
  G73F211_G73F210_l1         43.98     43.98     43.98      0.01         0.01
  G73F220_G73F210_l1         43.98     43.98     43.98     41.36        41.25
  G73F221_G73F220_l1         43.98     43.98     43.98     27.52        27.49
  G73F222_G73F221_l1         43.98     43.98     43.98      0.01         0.01
  G73F230_G73F220_l1         43.98     43.98     43.98      9.74         9.50
  G73F231_G73F230_l1         43.98     43.98     43.98      0.01         0.01
  G73F232_G73F231_l1         43.98     43.98     43.98      7.31         7.10
  G73F233_G73F230_l1         43.98     43.98     43.98     29.23        29.23
  G73F234_G73F233_l1         43.98     43.98     43.98      0.01         0.01
  G73F235_G73F234_l1         43.98     43.98     43.98      0.71         0.79
  G73F240_G73F170_l1         43.98     43.98     43.98     30.47        30.04
  G73F260_G73F240_l1         43.98     43.98     43.98      0.01         0.01
  G73F270_G73F260_l1         43.98     43.98     43.98     43.98        43.98
  G73F271_G73F270_l1         43.98     43.98     43.98      0.01         0.01
  G73F272_G73F271_l1         43.98     43.98     43.98      5.39         5.28
  G73F273_G73F272_l1         43.98     43.98     43.98     43.98        43.98
  G73F274_G73F273_l1         43.98     43.98     43.98     43.47        43.51
  G73F300_G73F050_l1         43.39     43.39     43.67      2.32         3.29
  G73F301_G73F300_l1         43.98     43.98     43.98      0.01         0.01
  G73F310_G73F300_l1         38.94     38.94     43.39      0.01         0.01
  G73F311_G73F310_l1         29.81     29.81     43.27      6.85         6.49
  G73F312_G73F311_l1         29.81     34.00     29.81     19.29         7.81
  G73F313_G73F314_l1         29.05     29.05     29.31      0.03         0.02
  G73F314_G73F312_l1         29.31     29.31     40.89      0.02         0.02
  G73F320_G73F310_l1         36.82     36.82     38.94      0.01         0.46
  G73F330_G73F320_l1         30.36     30.36     36.82      0.01         0.01
  G73F340_G73F330_l1         30.36     30.55     30.36     43.98        22.23
  G73F350_G73F340_l1         28.78     28.78     30.55      0.01         0.01
  G73F360_G73F350_l1         21.24     21.24     30.47      0.01         0.01
  G73F361_G73F360_l1         39.02     43.98     39.02     43.98        39.02
  G73F362_G73F361_l1         43.98     43.98     43.98      0.01         0.01
  G73F363_G73K365_l1         43.98     43.98     43.98     43.98        43.98
  G73F370_G73F360_l1         30.00     43.98     30.00     43.98        30.00
  G73F371_G73K370_l1         43.98     43.98     43.98      0.01         0.01
  G73F380_G73K370_l1         43.98     43.98     43.98     30.47        30.24
  G73F381_G73K380_l1         43.98     43.98     43.98      0.01         0.01
  G73F382_G73F381_l1         43.98     43.98     43.98     34.58        34.93
  G73F383_G73G384_l1         43.98     43.98     43.98      0.01         0.01
  G73F385_G73F380_l1         43.98     43.98     43.98     43.98        43.98
  G73F390_G73F380_l1         43.98     43.98     43.98      0.01         0.01
  G73F400_G73F390_l1         43.98     43.98     43.98     43.98        43.98
  G73F410_G73F400_l1         43.98     43.98     43.98     43.98        43.98
  G73F420_G73F410_l1         43.98     43.98     43.98     43.98        43.98
  G73F430_G73F420_l1         43.98     43.98     43.98     43.98        43.98
  G73F500_G73F190_l1         43.98     43.98     43.98     42.31        42.35
  G73F510_G73F500_l1         43.98     43.98     43.98      0.01         0.01
  G73F520_G73F510_l1         43.98     43.98     43.98      0.01         0.01
  G73F530_G73F520_l1         43.98     43.98     43.98      0.01         0.01
  G73F540_G73F530_l1         43.98     43.98     43.98     43.98        43.98
  G73F560_G73F540_l1         43.98     43.98     43.98     43.98        43.98
  G73F570_G73F560_l1         43.98     43.98     43.98      0.94        11.27
  G73F580_G73F670_l1         43.98     43.98     43.98      0.01         3.63
  G73F580_G73K570_l1         43.98     43.98     43.98      0.01         0.83
  G73F590_G73F580_l1         43.98     43.98     43.98     26.63        25.45
  G73F610_G73F590_l1         43.98     43.98     43.98      0.01         0.01
  G73F612_G73K611_l1         43.98     43.98     43.98     35.11        35.07
  G73F614_G73K613_l1         43.98     43.98     43.98      0.01         0.01
  G73F620_G73F610_l1         43.98     43.98     43.98      0.54         0.92
  G73F630_G73F620_l1         43.98     43.98     43.98      0.01         0.01
  G73F631_G73F630_l1         43.98     43.98     43.98      0.01         0.01
  G73F670_G73F660_l1         43.98     43.98     43.98      0.01         0.01
  G73F671_G73F670_l1         43.98     43.98     43.98      2.44         0.01
  G73F672_G73F671_l1         43.98     43.98     43.98     32.35         0.01
  G73F673_G73F672_l1         43.98     43.98     43.98     27.32         0.01
  G73F674_G73F673_l1         43.98     43.98     43.98      0.01         0.01
  G73F679_G73F670_l1         43.98     43.98     43.98      0.01         0.01
  G73G384_G73F385_l1         43.98     43.98     43.98     11.56        11.47
  G73K040_G73F040_l1         43.29     43.29     43.37      0.01         0.01
  G73K041_G73F040_l1         43.98     43.98     43.98      0.01         9.37
  G73K365_G73F362_l1         43.98     43.98     43.98     43.98        43.98
  G73K370_G73F370_l1         43.98     43.98     43.98     43.98        43.98
  G73K570_G73F570_l1         43.98     43.98     43.98      0.01         0.01
  G73K611_G73F610_l1         43.98     43.98     43.98      0.01         0.01
  G73K613_G73F612_l1         43.98     43.98     43.98      0.01         0.02
  G73K727_G73R722_l1         43.98     43.98     43.98      0.01         0.01
  G73R450_G73R440_l1         43.98     43.98     43.98     41.54        37.01
  G73R451_G73R450_l1         43.98     43.98     43.98     11.97         0.01
  G73R452_G73R451_l1         43.98     43.98     43.98     43.98         0.01
  G73R453_G73R452_l1         43.98     43.98     43.98     43.98         0.01
  G73R454_G73R452_l1         43.98     43.98     43.98     43.98         0.01
  G73R455_G73R454_l1         43.98     43.98     43.98      8.56        11.93
  G73R460_G73R450_l1         43.98     43.98     43.98      0.01         0.01
  G73R710_G73F710_l1         43.98     43.98     43.98     42.27        22.29
  G73R711_G73R710_l1         43.98     43.98     43.98      0.01         0.01
  G73R712_G73R711_l1         43.98     43.98     43.98      0.01         0.01
  G73R714_G73R713_l1         43.98     43.98     43.98      0.01         0.01
  G73R716_G73R714_l1          0.01      0.01     43.98      0.01         0.01
  G73R718_G73R717_l1         43.98     43.98     43.98      0.01         0.01
  G73R719_G73K726_l1         43.98     43.98     43.98      0.01         0.01
  G73R721_G73R719_l1         43.98     43.98     43.98      0.01         0.01
  G73R723_G73R716_l1         43.98     43.98     43.98      0.01         0.01
  G73R724_G73R723_l1         43.98     43.98     43.98     43.98        43.98
  G74F130_G72F120_l1         43.98     43.98     43.98     40.52        40.20
  G74F140_G74F130_l1         43.98     43.98     43.98     43.33        43.33
  G74F150_G74F140_l1         43.36     43.36     43.98     41.34        41.27
  G74F160_G74F150_l1         38.93     38.93     43.36      0.01         0.01
  G74F170_G74F160_l1         29.41     29.41     38.93      0.01         0.01
  G74F180_G74F170_l1         21.97     21.97     29.41      0.01         0.01
  G74F190_G74F180_l1         21.97     43.08     21.97     43.80        21.97
  G74F191_G74F190_l1         22.62     22.62     43.98      0.13         0.23
  G74F210_G74F190_l1         43.08     43.15     43.08     43.34        43.08
  G74F211_G74F210_l1         11.65     11.65     43.98      0.01         0.01
  G74F220_G74F210_l1         43.15     43.26     43.15     43.52        43.15
  G74F221_G74F220_l1         42.35     42.35     43.98     14.00        14.02
  G74F222_G74F221_l1         37.05     37.05     42.35      0.01         0.01
  G74F230_G74F220_l1         42.99     42.99     43.34      8.90         8.81
  G74F231_G74F230_l1         41.17     41.17     43.98      0.01         0.01
  G74F232_G74F231_l1         37.59     37.59     41.47     15.57        15.47
  G74F240_G74F230_l1         43.11     43.45     43.11     43.84        43.11
  G74F241_G74F240_l1         43.43     43.43     43.98     27.48        27.50
  G74F242_G74F241_l1         43.30     43.30     43.43      6.96         7.66
  G74F243_G74F242_l1         43.25     43.25     43.41      9.13         1.62
  G74F250_G74F240_l1         43.45     43.80     43.45     43.98        43.45
  G74F260_G74F250_l1         43.80     43.98     43.80     43.98        43.80
  G74F261_G74F260_l1         43.26     43.26     43.98      0.01         0.01
  G74F270_G74F260_l1         43.98     43.98     43.98     43.98        43.98
  G74F271_G74F270_l1         43.39     43.39     43.98      0.01         0.01
  G74F272_G74F271_l1         43.28     43.28     43.67      7.60         7.28
  G74F280_G74F270_l1         43.83     43.83     43.98      9.11         8.98
  G74F281_G74F280_l1         43.36     43.36     43.98      0.01         0.01
  G74F282_G74F281_l1         43.28     43.28     43.57      0.01         0.02
  G74F290_G74F280_l1         43.98     43.98     43.98      5.34         5.38
  G74F310_G74F290_l1         43.83     43.83     43.98      2.59         2.59
  G74F311_G74F310_l1         43.61     43.61     43.98      0.01         0.01
  G74F312_G74F311_l1         43.38     43.38     43.78      0.01         0.01
  G74F320_G74F310_l1         43.98     43.98     43.98      5.93         5.94
  G74F321_G74F320_l1         43.98     43.98     43.98      2.76         2.75
  G74F322_G74F321_l1         43.98     43.98     43.98      0.01         0.01
  G74F323_G74F320_l1         43.85     43.85     43.98      0.01         0.01
  G75F65Y_G75S541_l1          0.01     43.98      0.01     43.98         0.01
  G75F65Y_G75U03F_l1         40.76     43.07     40.76     43.35        40.76
  G75S060_G75S040_l1          2.00      2.00     18.30      0.01         0.01
  G75S080_G75S070_l1          0.01      0.01      2.00      0.01         0.01
  G76R180_G72R204_l1          9.84      9.84     11.95      7.02         4.67
  G76R180_G76R185_l1          0.01      0.01      0.01      0.86         0.01
  G76R185_G72R652_l1          7.95      7.95     43.34      0.01         0.01
  G80F010_G73F630_l1         43.98     43.98     43.98      0.01         0.01
  G80F020_G80F010_l1         43.98     43.98     43.98     39.95         0.01
  G80F030_G80F020_l1         43.98     43.98     43.98     39.63         0.01
  G80F040_G80F030_l1         43.98     43.98     43.98     37.77         0.01
  G80F060_G80F040_l1         43.98     43.98     43.98     38.35         0.01
  G80F070_G80F060_l1         43.98     43.98     43.98      0.01         6.63
  G80F080_G80F070_l1          0.01      0.01     43.98      0.01         0.01
  G80F312_G80F311_l1         43.98     43.98     43.98      0.01         0.01
  G80F313_G80F312_l1         43.98     43.98     43.98     43.98        43.98
  G80F340_G80F330_l1         43.98     43.98     43.98     43.98        43.98
  G80F350_G80F340_l1         43.98     43.98     43.98     43.98        43.98
  G80F360_G80F350_l1         43.98     43.98     43.98     43.98        43.98
  G80F370_G80F360_l1         43.98     43.98     43.98     43.98        43.95
  G80F380_G80F370_l1         43.98     43.98     43.98     43.98        43.98
  G80F390_G80F380_l1         42.13     42.13     43.98      0.01         0.01
  G80F400_G80F390_l1         42.48     42.48     42.53     39.81        35.94
  G80F410_G80F400_l1         42.48     42.51     42.48     43.03        39.17
  G80F420_G80F410_l1         41.34     41.34     42.51      0.01         0.01
  G80F421_G80F420_l1         43.98     43.98     43.98     43.98        43.98
  G80F422_G80F421_l1         41.21     41.21     43.98     36.01        36.06
  G80F423_G80F422_l1         40.47     40.47     41.21      0.02         0.02
  G80F424_G80F423_l1         40.01     40.01     40.47     33.53        33.55
  G80F425_G80F424_l1         39.59     39.59     40.37     11.87        11.97
  G80F430_G80F420_l1         42.35     42.58     42.35     43.98        42.34
  G80F440_G80F430_l1         42.58     43.22     42.58     43.98        42.57
  G80F460_G80F440_l1         43.98     43.98     43.98     43.98        43.98
  G80F461_G80F460_l1         43.98     43.98     43.98     43.98        43.98
  G80F462_G80F461_l1         43.98     43.98     43.98     43.98        43.98
  G80F463_G80F462_l1         43.98     43.98     43.98     26.72        26.56
  G80F470_G80F460_l1         40.48     40.48     43.98      0.01         0.01
  G80F472_G80K471_l1         13.10     13.10     43.98      0.01         0.01
  G80F473_G80K471_l1         40.11     40.11     40.95      0.01         0.01
  G80F480_G80F470_l1         37.91     37.91     40.25      0.01         0.01
  G80F490_G80F480_l1         38.53     38.53     39.57     24.43        24.91
  G80F491_G80F490_l1         37.83     37.85     38.53     38.95        37.20
  G80F492_G80F491_l1         38.50     43.37     38.50     43.98        38.50
  G80F493_G80F492_l1         42.18     42.18     43.37     40.62        40.64
  G80F494_G80F493_l1         43.12     43.41     43.12     43.62        43.12
  G80F495_G80F494_l1         43.23     43.23     43.35      9.44         9.25
  G80F496_G80F495_l1         43.24     43.24     43.31     43.29        43.21
  G80F497_G80F496_l1         39.85     39.85     43.98      0.01         0.01
  G80F510_G80F390_l1         43.43     43.47     43.43     43.81        43.43
  G80F520_G80F510_l1         43.40     43.40     43.85     43.19        43.19
  G80F531_G80K530_l1         41.04     41.04     43.98      0.01         0.01
  G80F540_G80K530_l1         43.31     43.31     43.37      0.01         0.01
  G80F560_G80F540_l1         43.31     43.35     43.31     43.59        43.31
  G80F570_G80F560_l1         43.37     43.37     43.39     33.36        33.34
  G80F580_G80F570_l1         43.29     43.29     43.37      6.82         6.86
  G80F610_G80F580_l1         43.26     43.26     43.29     20.74        20.93
  G80F620_G80F620_201320795_l1       41.97     41.97     43.06      0.01         0.01
  G80F621_G80F620_l1         40.80     40.80     42.94      0.01         0.01
  G80F622_G80F621_l1         33.13     33.13     40.98      0.01         0.01
  G80F660_G80K640_l1         42.50     42.50     43.29      0.01         0.01
  G80F66X_G80F11B_l1         43.98     43.98     43.98      0.01         0.01
  G80F670_G80F660_l1         42.50     42.56     42.50      9.65         9.85
  G80F680_G80F670_l1         42.56     43.31     42.56     23.06        21.04
  G80F690_G80F680_l1         43.98     43.98     43.98     15.65        15.70
  G80F710_G80F690_l1         43.98     43.98     43.98     26.31        26.91
  G80F720_G80F710_l1         43.98     43.98     43.98     43.98        43.98
  G80F730_G80F720_l1         43.98     43.98     43.98      3.24         3.24
  G80F740_G80F730_l1         43.98     43.98     43.98     43.23        43.25
  G80F741_G80F740_l1         43.98     43.98     43.98      0.01         0.01
  G80F742_G80F741_l1         43.98     43.98     43.98     14.61         0.01
  G80F743_G80F742_l1         43.98     43.98     43.98      0.01         0.01
  G80K530_G80F520_l1         43.37     43.37     43.37     43.45        43.35
  G80K630_G80F620_l1         42.37     43.29     42.37     42.07        39.87
  H50S820_G80F13P_l1         43.98     43.98     43.98      0.01         0.01
  G72F020_G72K020_l1          0.01      0.01     26.29      0.01         0.01
  G80F66Y_G80F310_l1         43.98     43.98     43.98      0.01         0.09
  G80F66X_G80F66Y_l1         43.98     43.98     43.98      0.01         0.01
  G80F330_G80F320_l1         43.98     43.98     43.98      0.01         0.01
  G61F043_G61F042_l1         43.98     43.98     43.98      0.67         0.63
  G73R440_G73R430_l1         43.98     43.98     43.98     40.84        40.65
  
  
  ***************
  Pumping Summary
  ***************
  
  ---------------------------------------------------------------------------------------------------------
                                                  Min       Avg       Max     Total     Power    % Time Off
                        Percent   Number of      Flow      Flow      Flow    Volume     Usage    Pump Curve
  Pump                 Utilized   Start-Ups       CMS       CMS       CMS  10^6 ltr     Kw-hr    Low   High
  ---------------------------------------------------------------------------------------------------------
  G70F11Pp1              100.00           0      0.00      0.02      0.02     3.325     20.35    0.0    0.0
  G71F12Pp1              100.00           0      0.00      0.01      0.02     2.375     21.70    0.0    0.0
  G71F12Pp2              100.00           0      0.00      0.00      0.00     0.633      5.79    0.0    0.0
  G71F68Yp1                0.00           0      0.00      0.00      0.00     0.000      0.00    0.0    0.0
  G80F13Pp1              100.00           0      0.00      0.03      0.03     4.116    146.51    0.0    0.0
  G70F11Pp2              100.00           0      0.00      0.01      0.01     1.742     10.66    0.0    0.0
  

  Analysis begun on:  Tue May 13 19:56:36 2025
  Analysis ended on:  Tue May 13 20:34:34 2025
  Total elapsed time: 00:37:58